New Loadshape.Shape_1 npts=288 interval=0.0833 mult=(file=/Users/OMalleyAG/Documents/Python/NandoLV/Summer_Load_CSVs/Customer_1.csv) useactual=false
New Loadshape.Shape_2 npts=288 interval=0.0833 mult=(file=/Users/OMalleyAG/Documents/Python/NandoLV/Summer_Load_CSVs/Customer_1.csv) useactual=false
New Loadshape.Shape_3 npts=288 interval=0.0833 mult=(file=/Users/OMalleyAG/Documents/Python/NandoLV/Summer_Load_CSVs/Customer_1.csv) useactual=false
New Loadshape.Shape_4 npts=288 interval=0.0833 mult=(file=/Users/OMalleyAG/Documents/Python/NandoLV/Summer_Load_CSVs/Customer_1.csv) useactual=false
New Loadshape.Shape_5 npts=288 interval=0.0833 mult=(file=/Users/OMalleyAG/Documents/Python/NandoLV/Summer_Load_CSVs/Customer_1.csv) useactual=false
New Loadshape.Shape_6 npts=288 interval=0.0833 mult=(file=/Users/OMalleyAG/Documents/Python/NandoLV/Summer_Load_CSVs/Customer_1.csv) useactual=false
New Loadshape.Shape_7 npts=288 interval=0.0833 mult=(file=/Users/OMalleyAG/Documents/Python/NandoLV/Summer_Load_CSVs/Customer_1.csv) useactual=false
New Loadshape.Shape_8 npts=288 interval=0.0833 mult=(file=/Users/OMalleyAG/Documents/Python/NandoLV/Summer_Load_CSVs/Customer_1.csv) useactual=false
New Loadshape.Shape_9 npts=288 interval=0.0833 mult=(file=/Users/OMalleyAG/Documents/Python/NandoLV/Summer_Load_CSVs/Customer_1.csv) useactual=false
New Loadshape.Shape_10 npts=288 interval=0.0833 mult=(file=/Users/OMalleyAG/Documents/Python/NandoLV/Summer_Load_CSVs/Customer_1.csv) useactual=false
New Loadshape.Shape_11 npts=288 interval=0.0833 mult=(file=/Users/OMalleyAG/Documents/Python/NandoLV/Summer_Load_CSVs/Customer_1.csv) useactual=false
New Loadshape.Shape_12 npts=288 interval=0.0833 mult=(file=/Users/OMalleyAG/Documents/Python/NandoLV/Summer_Load_CSVs/Customer_1.csv) useactual=false
New Loadshape.Shape_13 npts=288 interval=0.0833 mult=(file=/Users/OMalleyAG/Documents/Python/NandoLV/Summer_Load_CSVs/Customer_1.csv) useactual=false
New Loadshape.Shape_14 npts=288 interval=0.0833 mult=(file=/Users/OMalleyAG/Documents/Python/NandoLV/Summer_Load_CSVs/Customer_1.csv) useactual=false
New Loadshape.Shape_15 npts=288 interval=0.0833 mult=(file=/Users/OMalleyAG/Documents/Python/NandoLV/Summer_Load_CSVs/Customer_1.csv) useactual=false
New Loadshape.Shape_16 npts=288 interval=0.0833 mult=(file=/Users/OMalleyAG/Documents/Python/NandoLV/Summer_Load_CSVs/Customer_1.csv) useactual=false
New Loadshape.Shape_17 npts=288 interval=0.0833 mult=(file=/Users/OMalleyAG/Documents/Python/NandoLV/Summer_Load_CSVs/Customer_1.csv) useactual=false
New Loadshape.Shape_18 npts=288 interval=0.0833 mult=(file=/Users/OMalleyAG/Documents/Python/NandoLV/Summer_Load_CSVs/Customer_1.csv) useactual=false
New Loadshape.Shape_19 npts=288 interval=0.0833 mult=(file=/Users/OMalleyAG/Documents/Python/NandoLV/Summer_Load_CSVs/Customer_1.csv) useactual=false
New Loadshape.Shape_20 npts=288 interval=0.0833 mult=(file=/Users/OMalleyAG/Documents/Python/NandoLV/Summer_Load_CSVs/Customer_1.csv) useactual=false
New Loadshape.Shape_21 npts=288 interval=0.0833 mult=(file=/Users/OMalleyAG/Documents/Python/NandoLV/Summer_Load_CSVs/Customer_1.csv) useactual=false
New Loadshape.Shape_22 npts=288 interval=0.0833 mult=(file=/Users/OMalleyAG/Documents/Python/NandoLV/Summer_Load_CSVs/Customer_1.csv) useactual=false
New Loadshape.Shape_23 npts=288 interval=0.0833 mult=(file=/Users/OMalleyAG/Documents/Python/NandoLV/Summer_Load_CSVs/Customer_1.csv) useactual=false
New Loadshape.Shape_24 npts=288 interval=0.0833 mult=(file=/Users/OMalleyAG/Documents/Python/NandoLV/Summer_Load_CSVs/Customer_1.csv) useactual=false
New Loadshape.Shape_25 npts=288 interval=0.0833 mult=(file=/Users/OMalleyAG/Documents/Python/NandoLV/Summer_Load_CSVs/Customer_1.csv) useactual=false
New Loadshape.Shape_26 npts=288 interval=0.0833 mult=(file=/Users/OMalleyAG/Documents/Python/NandoLV/Summer_Load_CSVs/Customer_1.csv) useactual=false
New Loadshape.Shape_27 npts=288 interval=0.0833 mult=(file=/Users/OMalleyAG/Documents/Python/NandoLV/Summer_Load_CSVs/Customer_1.csv) useactual=false
New Loadshape.Shape_28 npts=288 interval=0.0833 mult=(file=/Users/OMalleyAG/Documents/Python/NandoLV/Summer_Load_CSVs/Customer_1.csv) useactual=false
New Loadshape.Shape_29 npts=288 interval=0.0833 mult=(file=/Users/OMalleyAG/Documents/Python/NandoLV/Summer_Load_CSVs/Customer_1.csv) useactual=false
New Loadshape.Shape_30 npts=288 interval=0.0833 mult=(file=/Users/OMalleyAG/Documents/Python/NandoLV/Summer_Load_CSVs/Customer_1.csv) useactual=false
New Loadshape.Shape_31 npts=288 interval=0.0833 mult=(file=/Users/OMalleyAG/Documents/Python/NandoLV/Summer_Load_CSVs/Customer_1.csv) useactual=false
New Loadshape.Shape_32 npts=288 interval=0.0833 mult=(file=/Users/OMalleyAG/Documents/Python/NandoLV/Summer_Load_CSVs/Customer_1.csv) useactual=false
New Loadshape.Shape_33 npts=288 interval=0.0833 mult=(file=/Users/OMalleyAG/Documents/Python/NandoLV/Summer_Load_CSVs/Customer_1.csv) useactual=false
New Loadshape.Shape_34 npts=288 interval=0.0833 mult=(file=/Users/OMalleyAG/Documents/Python/NandoLV/Summer_Load_CSVs/Customer_1.csv) useactual=false
New Loadshape.Shape_35 npts=288 interval=0.0833 mult=(file=/Users/OMalleyAG/Documents/Python/NandoLV/Summer_Load_CSVs/Customer_1.csv) useactual=false
New Loadshape.Shape_36 npts=288 interval=0.0833 mult=(file=/Users/OMalleyAG/Documents/Python/NandoLV/Summer_Load_CSVs/Customer_1.csv) useactual=false
New Loadshape.Shape_37 npts=288 interval=0.0833 mult=(file=/Users/OMalleyAG/Documents/Python/NandoLV/Summer_Load_CSVs/Customer_1.csv) useactual=false
New Loadshape.Shape_38 npts=288 interval=0.0833 mult=(file=/Users/OMalleyAG/Documents/Python/NandoLV/Summer_Load_CSVs/Customer_1.csv) useactual=false
New Loadshape.Shape_39 npts=288 interval=0.0833 mult=(file=/Users/OMalleyAG/Documents/Python/NandoLV/Summer_Load_CSVs/Customer_1.csv) useactual=false
New Loadshape.Shape_40 npts=288 interval=0.0833 mult=(file=/Users/OMalleyAG/Documents/Python/NandoLV/Summer_Load_CSVs/Customer_1.csv) useactual=false
New Loadshape.Shape_41 npts=288 interval=0.0833 mult=(file=/Users/OMalleyAG/Documents/Python/NandoLV/Summer_Load_CSVs/Customer_1.csv) useactual=false
New Loadshape.Shape_42 npts=288 interval=0.0833 mult=(file=/Users/OMalleyAG/Documents/Python/NandoLV/Summer_Load_CSVs/Customer_1.csv) useactual=false
New Loadshape.Shape_43 npts=288 interval=0.0833 mult=(file=/Users/OMalleyAG/Documents/Python/NandoLV/Summer_Load_CSVs/Customer_1.csv) useactual=false
New Loadshape.Shape_44 npts=288 interval=0.0833 mult=(file=/Users/OMalleyAG/Documents/Python/NandoLV/Summer_Load_CSVs/Customer_1.csv) useactual=false
New Loadshape.Shape_45 npts=288 interval=0.0833 mult=(file=/Users/OMalleyAG/Documents/Python/NandoLV/Summer_Load_CSVs/Customer_1.csv) useactual=false
New Loadshape.Shape_46 npts=288 interval=0.0833 mult=(file=/Users/OMalleyAG/Documents/Python/NandoLV/Summer_Load_CSVs/Customer_1.csv) useactual=false
New Loadshape.Shape_47 npts=288 interval=0.0833 mult=(file=/Users/OMalleyAG/Documents/Python/NandoLV/Summer_Load_CSVs/Customer_1.csv) useactual=false
New Loadshape.Shape_48 npts=288 interval=0.0833 mult=(file=/Users/OMalleyAG/Documents/Python/NandoLV/Summer_Load_CSVs/Customer_1.csv) useactual=false
New Loadshape.Shape_49 npts=288 interval=0.0833 mult=(file=/Users/OMalleyAG/Documents/Python/NandoLV/Summer_Load_CSVs/Customer_1.csv) useactual=false