New Loadshape.Shape_1 npts=288 interval=0.0833 mult=(file=/Users/OMalleyAG/Documents/Python/NandoLV/Summer_Load_CSVs/Customer_1.csv) useactual=false
New Loadshape.Shape_2 npts=288 interval=0.0833 mult=(file=/Users/OMalleyAG/Documents/Python/NandoLV/Summer_Load_CSVs/Customer_1.csv) useactual=false
New Loadshape.Shape_3 npts=288 interval=0.0833 mult=(file=/Users/OMalleyAG/Documents/Python/NandoLV/Summer_Load_CSVs/Customer_1.csv) useactual=false
New Loadshape.Shape_4 npts=288 interval=0.0833 mult=(file=/Users/OMalleyAG/Documents/Python/NandoLV/Summer_Load_CSVs/Customer_1.csv) useactual=false
New Loadshape.Shape_5 npts=288 interval=0.0833 mult=(file=/Users/OMalleyAG/Documents/Python/NandoLV/Summer_Load_CSVs/Customer_1.csv) useactual=false
New Loadshape.Shape_6 npts=288 interval=0.0833 mult=(file=/Users/OMalleyAG/Documents/Python/NandoLV/Summer_Load_CSVs/Customer_1.csv) useactual=false
New Loadshape.Shape_7 npts=288 interval=0.0833 mult=(file=/Users/OMalleyAG/Documents/Python/NandoLV/Summer_Load_CSVs/Customer_1.csv) useactual=false
New Loadshape.Shape_8 npts=288 interval=0.0833 mult=(file=/Users/OMalleyAG/Documents/Python/NandoLV/Summer_Load_CSVs/Customer_1.csv) useactual=false
New Loadshape.Shape_9 npts=288 interval=0.0833 mult=(file=/Users/OMalleyAG/Documents/Python/NandoLV/Summer_Load_CSVs/Customer_1.csv) useactual=false
New Loadshape.Shape_10 npts=288 interval=0.0833 mult=(file=/Users/OMalleyAG/Documents/Python/NandoLV/Summer_Load_CSVs/Customer_1.csv) useactual=false
New Loadshape.Shape_11 npts=288 interval=0.0833 mult=(file=/Users/OMalleyAG/Documents/Python/NandoLV/Summer_Load_CSVs/Customer_1.csv) useactual=false
New Loadshape.Shape_12 npts=288 interval=0.0833 mult=(file=/Users/OMalleyAG/Documents/Python/NandoLV/Summer_Load_CSVs/Customer_1.csv) useactual=false
New Loadshape.Shape_13 npts=288 interval=0.0833 mult=(file=/Users/OMalleyAG/Documents/Python/NandoLV/Summer_Load_CSVs/Customer_1.csv) useactual=false
New Loadshape.Shape_14 npts=288 interval=0.0833 mult=(file=/Users/OMalleyAG/Documents/Python/NandoLV/Summer_Load_CSVs/Customer_1.csv) useactual=false
New Loadshape.Shape_15 npts=288 interval=0.0833 mult=(file=/Users/OMalleyAG/Documents/Python/NandoLV/Summer_Load_CSVs/Customer_1.csv) useactual=false
New Loadshape.Shape_16 npts=288 interval=0.0833 mult=(file=/Users/OMalleyAG/Documents/Python/NandoLV/Summer_Load_CSVs/Customer_1.csv) useactual=false
New Loadshape.Shape_17 npts=288 interval=0.0833 mult=(file=/Users/OMalleyAG/Documents/Python/NandoLV/Summer_Load_CSVs/Customer_1.csv) useactual=false
New Loadshape.Shape_18 npts=288 interval=0.0833 mult=(file=/Users/OMalleyAG/Documents/Python/NandoLV/Summer_Load_CSVs/Customer_1.csv) useactual=false
New Loadshape.Shape_19 npts=288 interval=0.0833 mult=(file=/Users/OMalleyAG/Documents/Python/NandoLV/Summer_Load_CSVs/Customer_1.csv) useactual=false
New Loadshape.Shape_20 npts=288 interval=0.0833 mult=(file=/Users/OMalleyAG/Documents/Python/NandoLV/Summer_Load_CSVs/Customer_1.csv) useactual=false
New Loadshape.Shape_21 npts=288 interval=0.0833 mult=(file=/Users/OMalleyAG/Documents/Python/NandoLV/Summer_Load_CSVs/Customer_1.csv) useactual=false
New Loadshape.Shape_22 npts=288 interval=0.0833 mult=(file=/Users/OMalleyAG/Documents/Python/NandoLV/Summer_Load_CSVs/Customer_1.csv) useactual=false
New Loadshape.Shape_23 npts=288 interval=0.0833 mult=(file=/Users/OMalleyAG/Documents/Python/NandoLV/Summer_Load_CSVs/Customer_1.csv) useactual=false
New Loadshape.Shape_24 npts=288 interval=0.0833 mult=(file=/Users/OMalleyAG/Documents/Python/NandoLV/Summer_Load_CSVs/Customer_1.csv) useactual=false
New Loadshape.Shape_25 npts=288 interval=0.0833 mult=(file=/Users/OMalleyAG/Documents/Python/NandoLV/Summer_Load_CSVs/Customer_1.csv) useactual=false