New Loadshape.Shape_1 npts=288 interval=0.0833 mult=(file=/Users/OMalleyAG/Documents/Python/NandoLV/Summer_Load_CSVs/Customer_1.csv) useactual=false
New Loadshape.Shape_2 npts=288 interval=0.0833 mult=(file=/Users/OMalleyAG/Documents/Python/NandoLV/Summer_Load_CSVs/Customer_1.csv) useactual=false
New Loadshape.Shape_3 npts=288 interval=0.0833 mult=(file=/Users/OMalleyAG/Documents/Python/NandoLV/Summer_Load_CSVs/Customer_1.csv) useactual=false
New Loadshape.Shape_4 npts=288 interval=0.0833 mult=(file=/Users/OMalleyAG/Documents/Python/NandoLV/Summer_Load_CSVs/Customer_1.csv) useactual=false
New Loadshape.Shape_5 npts=288 interval=0.0833 mult=(file=/Users/OMalleyAG/Documents/Python/NandoLV/Summer_Load_CSVs/Customer_1.csv) useactual=false
New Loadshape.Shape_6 npts=288 interval=0.0833 mult=(file=/Users/OMalleyAG/Documents/Python/NandoLV/Summer_Load_CSVs/Customer_1.csv) useactual=false
New Loadshape.Shape_7 npts=288 interval=0.0833 mult=(file=/Users/OMalleyAG/Documents/Python/NandoLV/Summer_Load_CSVs/Customer_1.csv) useactual=false
New Loadshape.Shape_8 npts=288 interval=0.0833 mult=(file=/Users/OMalleyAG/Documents/Python/NandoLV/Summer_Load_CSVs/Customer_1.csv) useactual=false
New Loadshape.Shape_9 npts=288 interval=0.0833 mult=(file=/Users/OMalleyAG/Documents/Python/NandoLV/Summer_Load_CSVs/Customer_1.csv) useactual=false
New Loadshape.Shape_10 npts=288 interval=0.0833 mult=(file=/Users/OMalleyAG/Documents/Python/NandoLV/Summer_Load_CSVs/Customer_1.csv) useactual=false
New Loadshape.Shape_11 npts=288 interval=0.0833 mult=(file=/Users/OMalleyAG/Documents/Python/NandoLV/Summer_Load_CSVs/Customer_1.csv) useactual=false
New Loadshape.Shape_12 npts=288 interval=0.0833 mult=(file=/Users/OMalleyAG/Documents/Python/NandoLV/Summer_Load_CSVs/Customer_1.csv) useactual=false
New Loadshape.Shape_13 npts=288 interval=0.0833 mult=(file=/Users/OMalleyAG/Documents/Python/NandoLV/Summer_Load_CSVs/Customer_1.csv) useactual=false
New Loadshape.Shape_14 npts=288 interval=0.0833 mult=(file=/Users/OMalleyAG/Documents/Python/NandoLV/Summer_Load_CSVs/Customer_1.csv) useactual=false
New Loadshape.Shape_15 npts=288 interval=0.0833 mult=(file=/Users/OMalleyAG/Documents/Python/NandoLV/Summer_Load_CSVs/Customer_1.csv) useactual=false
New Loadshape.Shape_16 npts=288 interval=0.0833 mult=(file=/Users/OMalleyAG/Documents/Python/NandoLV/Summer_Load_CSVs/Customer_1.csv) useactual=false
New Loadshape.Shape_17 npts=288 interval=0.0833 mult=(file=/Users/OMalleyAG/Documents/Python/NandoLV/Summer_Load_CSVs/Customer_1.csv) useactual=false
New Loadshape.Shape_18 npts=288 interval=0.0833 mult=(file=/Users/OMalleyAG/Documents/Python/NandoLV/Summer_Load_CSVs/Customer_1.csv) useactual=false
New Loadshape.Shape_19 npts=288 interval=0.0833 mult=(file=/Users/OMalleyAG/Documents/Python/NandoLV/Summer_Load_CSVs/Customer_1.csv) useactual=false
New Loadshape.Shape_20 npts=288 interval=0.0833 mult=(file=/Users/OMalleyAG/Documents/Python/NandoLV/Summer_Load_CSVs/Customer_1.csv) useactual=false
New Loadshape.Shape_21 npts=288 interval=0.0833 mult=(file=/Users/OMalleyAG/Documents/Python/NandoLV/Summer_Load_CSVs/Customer_1.csv) useactual=false
New Loadshape.Shape_22 npts=288 interval=0.0833 mult=(file=/Users/OMalleyAG/Documents/Python/NandoLV/Summer_Load_CSVs/Customer_1.csv) useactual=false
New Loadshape.Shape_23 npts=288 interval=0.0833 mult=(file=/Users/OMalleyAG/Documents/Python/NandoLV/Summer_Load_CSVs/Customer_1.csv) useactual=false
New Loadshape.Shape_24 npts=288 interval=0.0833 mult=(file=/Users/OMalleyAG/Documents/Python/NandoLV/Summer_Load_CSVs/Customer_1.csv) useactual=false
New Loadshape.Shape_25 npts=288 interval=0.0833 mult=(file=/Users/OMalleyAG/Documents/Python/NandoLV/Summer_Load_CSVs/Customer_1.csv) useactual=false
New Loadshape.Shape_26 npts=288 interval=0.0833 mult=(file=/Users/OMalleyAG/Documents/Python/NandoLV/Summer_Load_CSVs/Customer_1.csv) useactual=false
New Loadshape.Shape_27 npts=288 interval=0.0833 mult=(file=/Users/OMalleyAG/Documents/Python/NandoLV/Summer_Load_CSVs/Customer_1.csv) useactual=false
New Loadshape.Shape_28 npts=288 interval=0.0833 mult=(file=/Users/OMalleyAG/Documents/Python/NandoLV/Summer_Load_CSVs/Customer_1.csv) useactual=false
New Loadshape.Shape_29 npts=288 interval=0.0833 mult=(file=/Users/OMalleyAG/Documents/Python/NandoLV/Summer_Load_CSVs/Customer_1.csv) useactual=false
New Loadshape.Shape_30 npts=288 interval=0.0833 mult=(file=/Users/OMalleyAG/Documents/Python/NandoLV/Summer_Load_CSVs/Customer_1.csv) useactual=false
New Loadshape.Shape_31 npts=288 interval=0.0833 mult=(file=/Users/OMalleyAG/Documents/Python/NandoLV/Summer_Load_CSVs/Customer_1.csv) useactual=false
New Loadshape.Shape_32 npts=288 interval=0.0833 mult=(file=/Users/OMalleyAG/Documents/Python/NandoLV/Summer_Load_CSVs/Customer_1.csv) useactual=false
New Loadshape.Shape_33 npts=288 interval=0.0833 mult=(file=/Users/OMalleyAG/Documents/Python/NandoLV/Summer_Load_CSVs/Customer_1.csv) useactual=false
New Loadshape.Shape_34 npts=288 interval=0.0833 mult=(file=/Users/OMalleyAG/Documents/Python/NandoLV/Summer_Load_CSVs/Customer_1.csv) useactual=false
New Loadshape.Shape_35 npts=288 interval=0.0833 mult=(file=/Users/OMalleyAG/Documents/Python/NandoLV/Summer_Load_CSVs/Customer_1.csv) useactual=false
New Loadshape.Shape_36 npts=288 interval=0.0833 mult=(file=/Users/OMalleyAG/Documents/Python/NandoLV/Summer_Load_CSVs/Customer_1.csv) useactual=false
New Loadshape.Shape_37 npts=288 interval=0.0833 mult=(file=/Users/OMalleyAG/Documents/Python/NandoLV/Summer_Load_CSVs/Customer_1.csv) useactual=false
New Loadshape.Shape_38 npts=288 interval=0.0833 mult=(file=/Users/OMalleyAG/Documents/Python/NandoLV/Summer_Load_CSVs/Customer_1.csv) useactual=false
New Loadshape.Shape_39 npts=288 interval=0.0833 mult=(file=/Users/OMalleyAG/Documents/Python/NandoLV/Summer_Load_CSVs/Customer_1.csv) useactual=false
New Loadshape.Shape_40 npts=288 interval=0.0833 mult=(file=/Users/OMalleyAG/Documents/Python/NandoLV/Summer_Load_CSVs/Customer_1.csv) useactual=false
New Loadshape.Shape_41 npts=288 interval=0.0833 mult=(file=/Users/OMalleyAG/Documents/Python/NandoLV/Summer_Load_CSVs/Customer_1.csv) useactual=false
New Loadshape.Shape_42 npts=288 interval=0.0833 mult=(file=/Users/OMalleyAG/Documents/Python/NandoLV/Summer_Load_CSVs/Customer_1.csv) useactual=false
New Loadshape.Shape_43 npts=288 interval=0.0833 mult=(file=/Users/OMalleyAG/Documents/Python/NandoLV/Summer_Load_CSVs/Customer_1.csv) useactual=false
New Loadshape.Shape_44 npts=288 interval=0.0833 mult=(file=/Users/OMalleyAG/Documents/Python/NandoLV/Summer_Load_CSVs/Customer_1.csv) useactual=false
New Loadshape.Shape_45 npts=288 interval=0.0833 mult=(file=/Users/OMalleyAG/Documents/Python/NandoLV/Summer_Load_CSVs/Customer_1.csv) useactual=false
New Loadshape.Shape_46 npts=288 interval=0.0833 mult=(file=/Users/OMalleyAG/Documents/Python/NandoLV/Summer_Load_CSVs/Customer_1.csv) useactual=false
New Loadshape.Shape_47 npts=288 interval=0.0833 mult=(file=/Users/OMalleyAG/Documents/Python/NandoLV/Summer_Load_CSVs/Customer_1.csv) useactual=false
New Loadshape.Shape_48 npts=288 interval=0.0833 mult=(file=/Users/OMalleyAG/Documents/Python/NandoLV/Summer_Load_CSVs/Customer_1.csv) useactual=false
New Loadshape.Shape_49 npts=288 interval=0.0833 mult=(file=/Users/OMalleyAG/Documents/Python/NandoLV/Summer_Load_CSVs/Customer_1.csv) useactual=false
New Loadshape.Shape_50 npts=288 interval=0.0833 mult=(file=/Users/OMalleyAG/Documents/Python/NandoLV/Summer_Load_CSVs/Customer_1.csv) useactual=false
New Loadshape.Shape_51 npts=288 interval=0.0833 mult=(file=/Users/OMalleyAG/Documents/Python/NandoLV/Summer_Load_CSVs/Customer_1.csv) useactual=false
New Loadshape.Shape_52 npts=288 interval=0.0833 mult=(file=/Users/OMalleyAG/Documents/Python/NandoLV/Summer_Load_CSVs/Customer_1.csv) useactual=false
New Loadshape.Shape_53 npts=288 interval=0.0833 mult=(file=/Users/OMalleyAG/Documents/Python/NandoLV/Summer_Load_CSVs/Customer_1.csv) useactual=false
New Loadshape.Shape_54 npts=288 interval=0.0833 mult=(file=/Users/OMalleyAG/Documents/Python/NandoLV/Summer_Load_CSVs/Customer_1.csv) useactual=false
New Loadshape.Shape_55 npts=288 interval=0.0833 mult=(file=/Users/OMalleyAG/Documents/Python/NandoLV/Summer_Load_CSVs/Customer_1.csv) useactual=false
New Loadshape.Shape_56 npts=288 interval=0.0833 mult=(file=/Users/OMalleyAG/Documents/Python/NandoLV/Summer_Load_CSVs/Customer_1.csv) useactual=false
New Loadshape.Shape_57 npts=288 interval=0.0833 mult=(file=/Users/OMalleyAG/Documents/Python/NandoLV/Summer_Load_CSVs/Customer_1.csv) useactual=false
New Loadshape.Shape_58 npts=288 interval=0.0833 mult=(file=/Users/OMalleyAG/Documents/Python/NandoLV/Summer_Load_CSVs/Customer_1.csv) useactual=false
New Loadshape.Shape_59 npts=288 interval=0.0833 mult=(file=/Users/OMalleyAG/Documents/Python/NandoLV/Summer_Load_CSVs/Customer_1.csv) useactual=false
New Loadshape.Shape_60 npts=288 interval=0.0833 mult=(file=/Users/OMalleyAG/Documents/Python/NandoLV/Summer_Load_CSVs/Customer_1.csv) useactual=false
New Loadshape.Shape_61 npts=288 interval=0.0833 mult=(file=/Users/OMalleyAG/Documents/Python/NandoLV/Summer_Load_CSVs/Customer_1.csv) useactual=false
New Loadshape.Shape_62 npts=288 interval=0.0833 mult=(file=/Users/OMalleyAG/Documents/Python/NandoLV/Summer_Load_CSVs/Customer_1.csv) useactual=false
New Loadshape.Shape_63 npts=288 interval=0.0833 mult=(file=/Users/OMalleyAG/Documents/Python/NandoLV/Summer_Load_CSVs/Customer_1.csv) useactual=false
New Loadshape.Shape_64 npts=288 interval=0.0833 mult=(file=/Users/OMalleyAG/Documents/Python/NandoLV/Summer_Load_CSVs/Customer_1.csv) useactual=false
New Loadshape.Shape_65 npts=288 interval=0.0833 mult=(file=/Users/OMalleyAG/Documents/Python/NandoLV/Summer_Load_CSVs/Customer_1.csv) useactual=false
New Loadshape.Shape_66 npts=288 interval=0.0833 mult=(file=/Users/OMalleyAG/Documents/Python/NandoLV/Summer_Load_CSVs/Customer_1.csv) useactual=false
New Loadshape.Shape_67 npts=288 interval=0.0833 mult=(file=/Users/OMalleyAG/Documents/Python/NandoLV/Summer_Load_CSVs/Customer_1.csv) useactual=false
New Loadshape.Shape_68 npts=288 interval=0.0833 mult=(file=/Users/OMalleyAG/Documents/Python/NandoLV/Summer_Load_CSVs/Customer_1.csv) useactual=false
New Loadshape.Shape_69 npts=288 interval=0.0833 mult=(file=/Users/OMalleyAG/Documents/Python/NandoLV/Summer_Load_CSVs/Customer_1.csv) useactual=false
New Loadshape.Shape_70 npts=288 interval=0.0833 mult=(file=/Users/OMalleyAG/Documents/Python/NandoLV/Summer_Load_CSVs/Customer_1.csv) useactual=false
New Loadshape.Shape_71 npts=288 interval=0.0833 mult=(file=/Users/OMalleyAG/Documents/Python/NandoLV/Summer_Load_CSVs/Customer_1.csv) useactual=false
New Loadshape.Shape_72 npts=288 interval=0.0833 mult=(file=/Users/OMalleyAG/Documents/Python/NandoLV/Summer_Load_CSVs/Customer_1.csv) useactual=false
New Loadshape.Shape_73 npts=288 interval=0.0833 mult=(file=/Users/OMalleyAG/Documents/Python/NandoLV/Summer_Load_CSVs/Customer_1.csv) useactual=false
New Loadshape.Shape_74 npts=288 interval=0.0833 mult=(file=/Users/OMalleyAG/Documents/Python/NandoLV/Summer_Load_CSVs/Customer_1.csv) useactual=false
New Loadshape.Shape_75 npts=288 interval=0.0833 mult=(file=/Users/OMalleyAG/Documents/Python/NandoLV/Summer_Load_CSVs/Customer_1.csv) useactual=false
New Loadshape.Shape_76 npts=288 interval=0.0833 mult=(file=/Users/OMalleyAG/Documents/Python/NandoLV/Summer_Load_CSVs/Customer_1.csv) useactual=false
New Loadshape.Shape_77 npts=288 interval=0.0833 mult=(file=/Users/OMalleyAG/Documents/Python/NandoLV/Summer_Load_CSVs/Customer_1.csv) useactual=false
New Loadshape.Shape_78 npts=288 interval=0.0833 mult=(file=/Users/OMalleyAG/Documents/Python/NandoLV/Summer_Load_CSVs/Customer_1.csv) useactual=false
New Loadshape.Shape_79 npts=288 interval=0.0833 mult=(file=/Users/OMalleyAG/Documents/Python/NandoLV/Summer_Load_CSVs/Customer_1.csv) useactual=false
New Loadshape.Shape_80 npts=288 interval=0.0833 mult=(file=/Users/OMalleyAG/Documents/Python/NandoLV/Summer_Load_CSVs/Customer_1.csv) useactual=false
New Loadshape.Shape_81 npts=288 interval=0.0833 mult=(file=/Users/OMalleyAG/Documents/Python/NandoLV/Summer_Load_CSVs/Customer_1.csv) useactual=false
New Loadshape.Shape_82 npts=288 interval=0.0833 mult=(file=/Users/OMalleyAG/Documents/Python/NandoLV/Summer_Load_CSVs/Customer_1.csv) useactual=false
New Loadshape.Shape_83 npts=288 interval=0.0833 mult=(file=/Users/OMalleyAG/Documents/Python/NandoLV/Summer_Load_CSVs/Customer_1.csv) useactual=false
New Loadshape.Shape_84 npts=288 interval=0.0833 mult=(file=/Users/OMalleyAG/Documents/Python/NandoLV/Summer_Load_CSVs/Customer_1.csv) useactual=false
New Loadshape.Shape_85 npts=288 interval=0.0833 mult=(file=/Users/OMalleyAG/Documents/Python/NandoLV/Summer_Load_CSVs/Customer_1.csv) useactual=false
New Loadshape.Shape_86 npts=288 interval=0.0833 mult=(file=/Users/OMalleyAG/Documents/Python/NandoLV/Summer_Load_CSVs/Customer_1.csv) useactual=false
New Loadshape.Shape_87 npts=288 interval=0.0833 mult=(file=/Users/OMalleyAG/Documents/Python/NandoLV/Summer_Load_CSVs/Customer_1.csv) useactual=false
New Loadshape.Shape_88 npts=288 interval=0.0833 mult=(file=/Users/OMalleyAG/Documents/Python/NandoLV/Summer_Load_CSVs/Customer_1.csv) useactual=false
New Loadshape.Shape_89 npts=288 interval=0.0833 mult=(file=/Users/OMalleyAG/Documents/Python/NandoLV/Summer_Load_CSVs/Customer_1.csv) useactual=false
New Loadshape.Shape_90 npts=288 interval=0.0833 mult=(file=/Users/OMalleyAG/Documents/Python/NandoLV/Summer_Load_CSVs/Customer_1.csv) useactual=false
New Loadshape.Shape_91 npts=288 interval=0.0833 mult=(file=/Users/OMalleyAG/Documents/Python/NandoLV/Summer_Load_CSVs/Customer_1.csv) useactual=false
New Loadshape.Shape_92 npts=288 interval=0.0833 mult=(file=/Users/OMalleyAG/Documents/Python/NandoLV/Summer_Load_CSVs/Customer_1.csv) useactual=false
New Loadshape.Shape_93 npts=288 interval=0.0833 mult=(file=/Users/OMalleyAG/Documents/Python/NandoLV/Summer_Load_CSVs/Customer_1.csv) useactual=false
New Loadshape.Shape_94 npts=288 interval=0.0833 mult=(file=/Users/OMalleyAG/Documents/Python/NandoLV/Summer_Load_CSVs/Customer_1.csv) useactual=false
New Loadshape.Shape_95 npts=288 interval=0.0833 mult=(file=/Users/OMalleyAG/Documents/Python/NandoLV/Summer_Load_CSVs/Customer_1.csv) useactual=false
New Loadshape.Shape_96 npts=288 interval=0.0833 mult=(file=/Users/OMalleyAG/Documents/Python/NandoLV/Summer_Load_CSVs/Customer_1.csv) useactual=false
New Loadshape.Shape_97 npts=288 interval=0.0833 mult=(file=/Users/OMalleyAG/Documents/Python/NandoLV/Summer_Load_CSVs/Customer_1.csv) useactual=false
New Loadshape.Shape_98 npts=288 interval=0.0833 mult=(file=/Users/OMalleyAG/Documents/Python/NandoLV/Summer_Load_CSVs/Customer_1.csv) useactual=false
New Loadshape.Shape_99 npts=288 interval=0.0833 mult=(file=/Users/OMalleyAG/Documents/Python/NandoLV/Summer_Load_CSVs/Customer_1.csv) useactual=false
New Loadshape.Shape_100 npts=288 interval=0.0833 mult=(file=/Users/OMalleyAG/Documents/Python/NandoLV/Summer_Load_CSVs/Customer_1.csv) useactual=false
New Loadshape.Shape_101 npts=288 interval=0.0833 mult=(file=/Users/OMalleyAG/Documents/Python/NandoLV/Summer_Load_CSVs/Customer_1.csv) useactual=false
New Loadshape.Shape_102 npts=288 interval=0.0833 mult=(file=/Users/OMalleyAG/Documents/Python/NandoLV/Summer_Load_CSVs/Customer_1.csv) useactual=false
New Loadshape.Shape_103 npts=288 interval=0.0833 mult=(file=/Users/OMalleyAG/Documents/Python/NandoLV/Summer_Load_CSVs/Customer_1.csv) useactual=false
New Loadshape.Shape_104 npts=288 interval=0.0833 mult=(file=/Users/OMalleyAG/Documents/Python/NandoLV/Summer_Load_CSVs/Customer_1.csv) useactual=false
New Loadshape.Shape_105 npts=288 interval=0.0833 mult=(file=/Users/OMalleyAG/Documents/Python/NandoLV/Summer_Load_CSVs/Customer_1.csv) useactual=false
New Loadshape.Shape_106 npts=288 interval=0.0833 mult=(file=/Users/OMalleyAG/Documents/Python/NandoLV/Summer_Load_CSVs/Customer_1.csv) useactual=false
New Loadshape.Shape_107 npts=288 interval=0.0833 mult=(file=/Users/OMalleyAG/Documents/Python/NandoLV/Summer_Load_CSVs/Customer_1.csv) useactual=false
New Loadshape.Shape_108 npts=288 interval=0.0833 mult=(file=/Users/OMalleyAG/Documents/Python/NandoLV/Summer_Load_CSVs/Customer_1.csv) useactual=false
New Loadshape.Shape_109 npts=288 interval=0.0833 mult=(file=/Users/OMalleyAG/Documents/Python/NandoLV/Summer_Load_CSVs/Customer_1.csv) useactual=false
New Loadshape.Shape_110 npts=288 interval=0.0833 mult=(file=/Users/OMalleyAG/Documents/Python/NandoLV/Summer_Load_CSVs/Customer_1.csv) useactual=false
New Loadshape.Shape_111 npts=288 interval=0.0833 mult=(file=/Users/OMalleyAG/Documents/Python/NandoLV/Summer_Load_CSVs/Customer_1.csv) useactual=false
New Loadshape.Shape_112 npts=288 interval=0.0833 mult=(file=/Users/OMalleyAG/Documents/Python/NandoLV/Summer_Load_CSVs/Customer_1.csv) useactual=false
New Loadshape.Shape_113 npts=288 interval=0.0833 mult=(file=/Users/OMalleyAG/Documents/Python/NandoLV/Summer_Load_CSVs/Customer_1.csv) useactual=false
New Loadshape.Shape_114 npts=288 interval=0.0833 mult=(file=/Users/OMalleyAG/Documents/Python/NandoLV/Summer_Load_CSVs/Customer_1.csv) useactual=false
New Loadshape.Shape_115 npts=288 interval=0.0833 mult=(file=/Users/OMalleyAG/Documents/Python/NandoLV/Summer_Load_CSVs/Customer_1.csv) useactual=false
New Loadshape.Shape_116 npts=288 interval=0.0833 mult=(file=/Users/OMalleyAG/Documents/Python/NandoLV/Summer_Load_CSVs/Customer_1.csv) useactual=false
New Loadshape.Shape_117 npts=288 interval=0.0833 mult=(file=/Users/OMalleyAG/Documents/Python/NandoLV/Summer_Load_CSVs/Customer_1.csv) useactual=false
New Loadshape.Shape_118 npts=288 interval=0.0833 mult=(file=/Users/OMalleyAG/Documents/Python/NandoLV/Summer_Load_CSVs/Customer_1.csv) useactual=false
New Loadshape.Shape_119 npts=288 interval=0.0833 mult=(file=/Users/OMalleyAG/Documents/Python/NandoLV/Summer_Load_CSVs/Customer_1.csv) useactual=false
New Loadshape.Shape_120 npts=288 interval=0.0833 mult=(file=/Users/OMalleyAG/Documents/Python/NandoLV/Summer_Load_CSVs/Customer_1.csv) useactual=false
New Loadshape.Shape_121 npts=288 interval=0.0833 mult=(file=/Users/OMalleyAG/Documents/Python/NandoLV/Summer_Load_CSVs/Customer_1.csv) useactual=false
New Loadshape.Shape_122 npts=288 interval=0.0833 mult=(file=/Users/OMalleyAG/Documents/Python/NandoLV/Summer_Load_CSVs/Customer_1.csv) useactual=false
New Loadshape.Shape_123 npts=288 interval=0.0833 mult=(file=/Users/OMalleyAG/Documents/Python/NandoLV/Summer_Load_CSVs/Customer_1.csv) useactual=false
New Loadshape.Shape_124 npts=288 interval=0.0833 mult=(file=/Users/OMalleyAG/Documents/Python/NandoLV/Summer_Load_CSVs/Customer_1.csv) useactual=false
New Loadshape.Shape_125 npts=288 interval=0.0833 mult=(file=/Users/OMalleyAG/Documents/Python/NandoLV/Summer_Load_CSVs/Customer_1.csv) useactual=false
New Loadshape.Shape_126 npts=288 interval=0.0833 mult=(file=/Users/OMalleyAG/Documents/Python/NandoLV/Summer_Load_CSVs/Customer_1.csv) useactual=false
New Loadshape.Shape_127 npts=288 interval=0.0833 mult=(file=/Users/OMalleyAG/Documents/Python/NandoLV/Summer_Load_CSVs/Customer_1.csv) useactual=false
New Loadshape.Shape_128 npts=288 interval=0.0833 mult=(file=/Users/OMalleyAG/Documents/Python/NandoLV/Summer_Load_CSVs/Customer_1.csv) useactual=false
New Loadshape.Shape_129 npts=288 interval=0.0833 mult=(file=/Users/OMalleyAG/Documents/Python/NandoLV/Summer_Load_CSVs/Customer_1.csv) useactual=false
New Loadshape.Shape_130 npts=288 interval=0.0833 mult=(file=/Users/OMalleyAG/Documents/Python/NandoLV/Summer_Load_CSVs/Customer_1.csv) useactual=false
New Loadshape.Shape_131 npts=288 interval=0.0833 mult=(file=/Users/OMalleyAG/Documents/Python/NandoLV/Summer_Load_CSVs/Customer_1.csv) useactual=false
New Loadshape.Shape_132 npts=288 interval=0.0833 mult=(file=/Users/OMalleyAG/Documents/Python/NandoLV/Summer_Load_CSVs/Customer_1.csv) useactual=false
New Loadshape.Shape_133 npts=288 interval=0.0833 mult=(file=/Users/OMalleyAG/Documents/Python/NandoLV/Summer_Load_CSVs/Customer_1.csv) useactual=false
New Loadshape.Shape_134 npts=288 interval=0.0833 mult=(file=/Users/OMalleyAG/Documents/Python/NandoLV/Summer_Load_CSVs/Customer_1.csv) useactual=false
New Loadshape.Shape_135 npts=288 interval=0.0833 mult=(file=/Users/OMalleyAG/Documents/Python/NandoLV/Summer_Load_CSVs/Customer_1.csv) useactual=false
New Loadshape.Shape_136 npts=288 interval=0.0833 mult=(file=/Users/OMalleyAG/Documents/Python/NandoLV/Summer_Load_CSVs/Customer_1.csv) useactual=false
New Loadshape.Shape_137 npts=288 interval=0.0833 mult=(file=/Users/OMalleyAG/Documents/Python/NandoLV/Summer_Load_CSVs/Customer_1.csv) useactual=false
New Loadshape.Shape_138 npts=288 interval=0.0833 mult=(file=/Users/OMalleyAG/Documents/Python/NandoLV/Summer_Load_CSVs/Customer_1.csv) useactual=false
New Loadshape.Shape_139 npts=288 interval=0.0833 mult=(file=/Users/OMalleyAG/Documents/Python/NandoLV/Summer_Load_CSVs/Customer_1.csv) useactual=false
New Loadshape.Shape_140 npts=288 interval=0.0833 mult=(file=/Users/OMalleyAG/Documents/Python/NandoLV/Summer_Load_CSVs/Customer_1.csv) useactual=false
New Loadshape.Shape_141 npts=288 interval=0.0833 mult=(file=/Users/OMalleyAG/Documents/Python/NandoLV/Summer_Load_CSVs/Customer_1.csv) useactual=false
New Loadshape.Shape_142 npts=288 interval=0.0833 mult=(file=/Users/OMalleyAG/Documents/Python/NandoLV/Summer_Load_CSVs/Customer_1.csv) useactual=false
New Loadshape.Shape_143 npts=288 interval=0.0833 mult=(file=/Users/OMalleyAG/Documents/Python/NandoLV/Summer_Load_CSVs/Customer_1.csv) useactual=false
New Loadshape.Shape_144 npts=288 interval=0.0833 mult=(file=/Users/OMalleyAG/Documents/Python/NandoLV/Summer_Load_CSVs/Customer_1.csv) useactual=false
New Loadshape.Shape_145 npts=288 interval=0.0833 mult=(file=/Users/OMalleyAG/Documents/Python/NandoLV/Summer_Load_CSVs/Customer_1.csv) useactual=false
New Loadshape.Shape_146 npts=288 interval=0.0833 mult=(file=/Users/OMalleyAG/Documents/Python/NandoLV/Summer_Load_CSVs/Customer_1.csv) useactual=false
New Loadshape.Shape_147 npts=288 interval=0.0833 mult=(file=/Users/OMalleyAG/Documents/Python/NandoLV/Summer_Load_CSVs/Customer_1.csv) useactual=false
New Loadshape.Shape_148 npts=288 interval=0.0833 mult=(file=/Users/OMalleyAG/Documents/Python/NandoLV/Summer_Load_CSVs/Customer_1.csv) useactual=false
New Loadshape.Shape_149 npts=288 interval=0.0833 mult=(file=/Users/OMalleyAG/Documents/Python/NandoLV/Summer_Load_CSVs/Customer_1.csv) useactual=false
New Loadshape.Shape_150 npts=288 interval=0.0833 mult=(file=/Users/OMalleyAG/Documents/Python/NandoLV/Summer_Load_CSVs/Customer_1.csv) useactual=false
New Loadshape.Shape_151 npts=288 interval=0.0833 mult=(file=/Users/OMalleyAG/Documents/Python/NandoLV/Summer_Load_CSVs/Customer_1.csv) useactual=false
New Loadshape.Shape_152 npts=288 interval=0.0833 mult=(file=/Users/OMalleyAG/Documents/Python/NandoLV/Summer_Load_CSVs/Customer_1.csv) useactual=false
New Loadshape.Shape_153 npts=288 interval=0.0833 mult=(file=/Users/OMalleyAG/Documents/Python/NandoLV/Summer_Load_CSVs/Customer_1.csv) useactual=false
New Loadshape.Shape_154 npts=288 interval=0.0833 mult=(file=/Users/OMalleyAG/Documents/Python/NandoLV/Summer_Load_CSVs/Customer_1.csv) useactual=false
New Loadshape.Shape_155 npts=288 interval=0.0833 mult=(file=/Users/OMalleyAG/Documents/Python/NandoLV/Summer_Load_CSVs/Customer_1.csv) useactual=false
New Loadshape.Shape_156 npts=288 interval=0.0833 mult=(file=/Users/OMalleyAG/Documents/Python/NandoLV/Summer_Load_CSVs/Customer_1.csv) useactual=false
New Loadshape.Shape_157 npts=288 interval=0.0833 mult=(file=/Users/OMalleyAG/Documents/Python/NandoLV/Summer_Load_CSVs/Customer_1.csv) useactual=false
New Loadshape.Shape_158 npts=288 interval=0.0833 mult=(file=/Users/OMalleyAG/Documents/Python/NandoLV/Summer_Load_CSVs/Customer_1.csv) useactual=false
New Loadshape.Shape_159 npts=288 interval=0.0833 mult=(file=/Users/OMalleyAG/Documents/Python/NandoLV/Summer_Load_CSVs/Customer_1.csv) useactual=false
New Loadshape.Shape_160 npts=288 interval=0.0833 mult=(file=/Users/OMalleyAG/Documents/Python/NandoLV/Summer_Load_CSVs/Customer_1.csv) useactual=false
New Loadshape.Shape_161 npts=288 interval=0.0833 mult=(file=/Users/OMalleyAG/Documents/Python/NandoLV/Summer_Load_CSVs/Customer_1.csv) useactual=false
New Loadshape.Shape_162 npts=288 interval=0.0833 mult=(file=/Users/OMalleyAG/Documents/Python/NandoLV/Summer_Load_CSVs/Customer_1.csv) useactual=false
New Loadshape.Shape_163 npts=288 interval=0.0833 mult=(file=/Users/OMalleyAG/Documents/Python/NandoLV/Summer_Load_CSVs/Customer_1.csv) useactual=false
New Loadshape.Shape_164 npts=288 interval=0.0833 mult=(file=/Users/OMalleyAG/Documents/Python/NandoLV/Summer_Load_CSVs/Customer_1.csv) useactual=false
New Loadshape.Shape_165 npts=288 interval=0.0833 mult=(file=/Users/OMalleyAG/Documents/Python/NandoLV/Summer_Load_CSVs/Customer_1.csv) useactual=false
New Loadshape.Shape_166 npts=288 interval=0.0833 mult=(file=/Users/OMalleyAG/Documents/Python/NandoLV/Summer_Load_CSVs/Customer_1.csv) useactual=false
New Loadshape.Shape_167 npts=288 interval=0.0833 mult=(file=/Users/OMalleyAG/Documents/Python/NandoLV/Summer_Load_CSVs/Customer_1.csv) useactual=false
New Loadshape.Shape_168 npts=288 interval=0.0833 mult=(file=/Users/OMalleyAG/Documents/Python/NandoLV/Summer_Load_CSVs/Customer_1.csv) useactual=false
New Loadshape.Shape_169 npts=288 interval=0.0833 mult=(file=/Users/OMalleyAG/Documents/Python/NandoLV/Summer_Load_CSVs/Customer_1.csv) useactual=false
New Loadshape.Shape_170 npts=288 interval=0.0833 mult=(file=/Users/OMalleyAG/Documents/Python/NandoLV/Summer_Load_CSVs/Customer_1.csv) useactual=false
New Loadshape.Shape_171 npts=288 interval=0.0833 mult=(file=/Users/OMalleyAG/Documents/Python/NandoLV/Summer_Load_CSVs/Customer_1.csv) useactual=false
New Loadshape.Shape_172 npts=288 interval=0.0833 mult=(file=/Users/OMalleyAG/Documents/Python/NandoLV/Summer_Load_CSVs/Customer_1.csv) useactual=false
New Loadshape.Shape_173 npts=288 interval=0.0833 mult=(file=/Users/OMalleyAG/Documents/Python/NandoLV/Summer_Load_CSVs/Customer_1.csv) useactual=false